
! finidat = file_init
fsurdat = file_surf

hist_empty_htapes = .true.
urban_traffic = .false.

hist_fincl1 = hist_vars
hist_nhtfrq = hist_frq
hist_mfilt  = hist_flt