
file_init
fsurdat = file_surf

hist_empty_htapes = .true.

hist_fincl1 = hist_vars_grid
hist_nhtfrq = hist_frq
hist_mfilt  = hist_flt

hist_vars_pft

methane_model